ipss.test.plugin.core/testData/psse/v30/Texas2k/Texas2k_series24_case3_2024summerpeak_v30.RAW
0,   100.00, 30, 0, 1,  60.00     / PSS(R)E 30 RAW created by rawd30  MON, MAR 31 2025  19:40
TEXAS2K_SERIES24_CASE3_2024SUMMERPEAK
THIS IS A SYNTHETIC POWER SYSTEM MODEL THAT DOES NOT REPRESE
  1001,'ODESSA 2 0  ', 115.0000,1,     0.000,     0.000,   1,   9,0.96824,   5.7897,   1
  1002,'PRESIDIO 2 0', 115.0000,1,     0.000,     0.000,   1,   9,1.03310,  32.8125,   1
  1003,'O DONNELL ~1', 115.0000,1,     0.000,     0.000,   1,   9,0.99513,  12.9281,   1
  1004,'O DONNELL ~2', 230.0000,2,     0.000,     0.000,   1,   9,1.01000,   4.3102,   1
  1005,'BIG SPRING~8', 115.0000,1,     0.000,     0.000,   1,   9,0.99848,  17.4794,   1
  1006,'BIG SPRING~9',  13.8000,2,     0.000,     0.000,   1,   9,1.00000,  18.5630,   1
  1007,'VAN HORN 0  ', 115.0000,2,     0.000,     0.000,   1,   9,1.03766,  38.4517,   1
  1008,'IRAAN 2 0   ', 115.0000,1,     0.000,     0.000,   1,   9,1.00407,  21.7595,   1
  1009,'IRAAN 2 1   ',  13.8000,2,     0.000,     0.000,   1,   9,1.00000,  25.1193,   1
  1010,'PRESIDIO 1 0', 115.0000,1,     0.000,     0.000,   1,   9,1.03712,  32.5679,   1
  1011,'PRESIDIO 1 1',  22.0000,2,     0.000,     0.000,   1,   9,1.03734,  34.2968,   1
  1012,'SANDERSON 0 ', 115.0000,1,     0.000,     0.000,   1,   9,1.00835,   7.3248,   1
  1013,'MONAHANS 2 0', 115.0000,1,     0.000,     0.000,   1,   9,0.99636,  22.6939,   1
  1014,'GRANDFALLS 0', 115.0000,1,     0.000,     0.000,   1,   9,0.99571,  23.1059,   1
  1015,'MARFA 0     ', 115.0000,1,     0.000,     0.000,   1,   9,1.03749,  34.2224,   1
  1016,'GARDEN CIT~1', 115.0000,2,     0.000,     0.000,   1,   9,1.00000,  23.5753,   1
  1017,'ODESSA 4 0  ', 115.0000,1,     0.000,     0.000,   1,   9,0.97921,  12.1995,   1
  1018,'NOTREES 0   ', 115.0000,1,     0.000,     0.000,   1,   9,0.99555,  13.7914,   1
  1019,'MIDLAND 4 0 ', 115.0000,1,     0.000,     0.000,   1,   9,0.98354,   8.2692,   1
  1020,'BIG SPRING~1', 115.0000,1,     0.000,     0.000,   1,   9,1.00354,  12.0089,   1
  1021,'BIG SPRING~2',  13.8000,2,     0.000,     0.000,   1,   9,1.00000,  15.3579,   1
  1022,'O DONNELL ~3', 115.0000,2,     0.000,     0.000,   1,   9,1.00052,  14.1151,   1
  1023,'O DONNELL ~4',  13.8000,2,     0.000,     0.000,   1,   9,1.01000,  22.5852,   1
  1024,'ODESSA 6 0  ', 115.0000,1,     0.000,     0.000,   1,   9,1.00324,  15.1484,   1
  1025,'BIG SPRIN~14', 115.0000,1,     0.000,     0.000,   1,   9,1.00229,  13.6503,   1
  1026,'BIG SPRIN~15',  13.8000,2,     0.000,     0.000,   1,   9,1.00000,  23.2945,   1
  1027,'MIDLAND 2 0 ', 115.0000,2,     0.000,     0.000,   1,   9,1.00000,   8.5069,   1
  1028,'COAHOMA 0   ', 115.0000,2,     0.000,     0.000,   1,   9,1.00000,   9.6281,   1
  1029,'MIDLAND 3 0 ', 115.0000,2,     0.000,     0.000,   1,   9,1.00000,  10.5109,   1
  1030,'ALPINE 0    ', 115.0000,2,     0.000,     0.000,   1,   9,1.01209,  28.1580,   1
  1031,'FORT DAVIS 0', 115.0000,1,     0.000,     0.000,   1,   9,1.00993,  30.3317,   1
  1032,'MCCAMEY 1 0 ', 115.0000,2,     0.000,     0.000,   1,   9,0.98846,  19.6845,   1
  1033,'MCCAMEY 1 1 ', 230.0000,2,     0.000,     0.000,   1,   9,1.00000,  16.1168,   1
  1034,'BIG SPRING~6', 115.0000,1,     0.000,     0.000,   1,   9,1.00051,  20.1305,   1
  1035,'BIG SPRING~7',  13.8000,2,     0.000,     0.000,   1,   9,1.00000,  23.4218,   1
  1036,'CRANE 0     ', 115.0000,2,     0.000,     0.000,   1,   9,0.99670,  23.5788,   1
  1037,'ODESSA 5 0  ', 115.0000,2,     0.000,     0.000,   1,   9,0.97351,  10.0350,   1
  1038,'FORT STOCK~1', 115.0000,1,     0.000,     0.000,   1,   9,1.00118,  25.1037,   1
  1039,'FORT STOCK~2',  22.0000,2,     0.000,     0.000,   1,   9,1.00000,  30.5495,   1
  1040,'ANDREWS 0   ', 115.0000,2,     0.000,     0.000,   1,   9,1.00000,  17.1428,   1
  1041,'FORSAN 0    ', 115.0000,1,     0.000,     0.000,   1,   9,1.00330,  19.2869,   1
  1042,'FORSAN 1    ',  13.8000,1,     0.000,     0.000,   1,   9,1.00330,  19.2869,   1
  1043,'FORSAN 2    ',  13.8000,2,     0.000,     0.000,   1,   9,1.00000,  22.5273,   1
  1044,'BIG LAKE 0  ', 115.0000,2,     0.000,     0.000,   1,   9,1.00000,   5.7560,   1
  1045,'MIDLAND 5 0 ', 115.0000,1,     0.000,     0.000,   1,   9,0.96732,   6.4911,   1
  1046,'OZONA 0     ', 115.0000,2,     0.000,     0.000,   1,   9,1.00000,  17.6956,   1
  1047,'MONAHANS 1 0', 115.0000,1,     0.000,     0.000,   1,   9,0.99417,  18.9981,   1
  1048,'MONAHANS 1 1',  18.0000,1,     0.000,     0.000,   1,   9,0.99417,  18.9981,   1
  1049,'MONAHANS 1 2',  18.0000,1,     0.000,     0.000,   1,   9,0.99417,  18.9981,   1
  1050,'MONAHANS 1 3',  18.0000,2,     0.000,     0.000,   1,   9,1.00000,  21.5501,   1
  1051,'MONAHANS 1 4',  18.0000,2,     0.000,     0.000,   1,   9,1.00000,  22.2926,   1
  1052,'MONAHANS 1 5',  18.0000,2,     0.000,     0.000,   1,   9,1.00000,  21.1140,   1
  1053,'MONAHANS 1 6', 230.0000,1,     0.000,     0.000,   1,   9,0.99698,  14.2884,   1
  1054,'STANTON 0   ', 115.0000,1,     0.000,     0.000,   1,   9,1.00316,  13.0374,   1
  1055,'ODONNELL 0  ', 115.0000,2,     0.000,     0.000,   1,   9,1.00000,  13.9896,   1
  1056,'LENORAH 0   ', 115.0000,1,     0.000,     0.000,   1,   9,1.01714,  12.3461,   1
  1057,'LENORAH 1   ',  18.0000,1,     0.000,     0.000,   1,   9,1.01714,  12.3461,   1
  1058,'IRAAN 3 0   ', 115.0000,1,     0.000,     0.000,   1,   9,1.01189,  19.8126,   1
  1059,'IRAAN 3 1   ',  22.0000,1,     0.000,     0.000,   1,   9,1.01189,  19.8126,   1
  1060,'IRAAN 3 2   ',  22.0000,1,     0.000,     0.000,   1,   9,1.01189,  19.8126,   1
  1061,'BIG SPRIN~10', 115.0000,2,     0.000,     0.000,   1,   9,1.00000,  16.2996,   1
  1062,'BIG SPRIN~11',  13.8000,2,     0.000,     0.000,   1,   9,1.01000,  18.6414,   1
  1063,'BIG SPRIN~12',  13.8000,2,     0.000,     0.000,   1,   9,1.01000,  19.3747,   1
  1064,'ODESSA 3 0  ', 115.0000,1,     0.000,     0.000,   1,   9,0.96042,   4.8412,   1
  1065,'BIG SPRING~4', 115.0000,1,     0.000,     0.000,   1,   9,1.00498,  19.4313,   1
  1066,'BIG SPRING~5',  13.8000,2,     0.000,     0.000,   1,   9,1.00000,  26.9611,   1
  1067,'BIG SPRIN~13', 115.0000,1,     0.000,     0.000,   1,   9,1.00098,  18.7335,   1
  1068,'MIDLAND 1 0 ', 115.0000,1,     0.000,     0.000,   1,   9,0.97442,  20.4115,   1
  1069,'IRAAN 1 0   ', 115.0000,1,     0.000,     0.000,   1,   9,1.01105,  22.4856,   1
  1070,'IRAAN 1 1   ',  13.8000,2,     0.000,     0.000,   1,   9,1.04000,  27.0130,   1
  1071,'ODESSA 1 0  ', 115.0000,1,     0.000,     0.000,   1,   9,0.97603,   6.7442,   1
  1072,'ODESSA 1 1  ',  18.0000,2,     0.000,     0.000,   1,   9,1.01000,  11.4070,   1
  1073,'ODESSA 1 2  ',  18.0000,2,     0.000,     0.000,   1,   9,1.01000,  14.6489,   1
  1074,'ODESSA 1 3  ',  18.0000,2,     0.000,     0.000,   1,   9,1.01000,  13.6175,   1
  1075,'ODESSA 1 4  ',  18.0000,2,     0.000,     0.000,   1,   9,1.01000,  12.2410,   1
  1076,'ODESSA 1 5  ',  18.0000,1,     0.000,     0.000,   1,   9,0.97603,   6.7442,   1
  1077,'ODESSA 1 6  ',  18.0000,1,     0.000,     0.000,   1,   9,0.97603,   6.7442,   1
  1078,'ODESSA 1 7  ',  18.0000,2,     0.000,     0.000,   1,   9,1.01000,  11.9905,   1
  1079,'ODESSA 1 8  ', 500.0000,2,     0.000,     0.000,   1,   9,1.01000, -14.9422,   1
  1080,'ODESSA 1 9  ',  18.0000,2,     0.000,     0.000,   1,   9,1.01000,  12.2463,   1
  1081,'ODESSA 1 10 ', 230.0000,1,     0.000,     0.000,   1,   9,0.99776,  11.0748,   1
  1082,'FORT STOCK~3', 115.0000,2,     0.000,     0.000,   1,   9,1.00000,  25.4671,   1
  1083,'FORT STOCK~4', 115.0000,2,     0.000,     0.000,   1,   9,1.00000,  28.3499,   1
  1084,'BIG SPRING~3', 115.0000,2,     0.000,     0.000,   1,   9,1.04000,  11.2168,   1
  1085,'KERMIT 0    ', 115.0000,2,     0.000,     0.000,   1,   9,1.00000,  22.2358,   1
  1086,'PECOS 0     ', 115.0000,2,     0.000,     0.000,   1,   9,1.01479,  21.7765,   1
  1087,'SHEFFIELD 0 ', 115.0000,1,     0.000,     0.000,   1,   9,1.02203,  14.7161,   1
  1088,'MCCAMEY 2 0 ', 115.0000,2,     0.000,     0.000,   1,   9,1.00000,  24.4966,   1
  1089,'LAMESA 0    ', 115.0000,2,     0.000,     0.000,   1,   9,1.00000,  17.2453,   1
  1090,'GOLDSMITH 0 ', 115.0000,2,     0.000,     0.000,   1,   9,1.02000,  17.3347,   1
  1091,'RALLS 2 0   ', 161.0000,1,     0.000,     0.000,   1,   9,0.97825,  11.0160,   1
  2001,'PARIS 3 0   ', 161.0000,1,     0.000,     0.000,   2,  11,0.99939, -45.7566,   1
  2002,'SAVOY 0     ', 500.0000,1,     0.000,     0.000,   2,  11,1.01333, -46.6724,   1
  2003,'SAVOY 1     ', 161.0000,1,     0.000,     0.000,   2,  11,1.01202, -48.9739,   1
  2004,'SAVOY 2     ',  13.8000,1,     0.000,     0.000,   2,  11,1.01333, -46.6724,   1
  2005,'SAVOY 3     ',  13.8000,1,     0.000,     0.000,   2,  11,1.01333, -46.6724,   1
  2006,'SAVOY 4     ',  13.8000,1,     0.000,     0.000,   2,  11,1.01333, -46.6724,   1
  2007,'HONEY GROV~1', 161.0000,1,     0.000,     0.000,   2,  11,1.00154, -45.0690,   1
  2008,'MEMPHIS 0   ', 161.0000,2,     0.000,     0.000,   2,  10,1.00128,  19.9356,   1
  2009,'IOWA PARK 0 ', 161.0000,1,     0.000,     0.000,   2,  11,0.99298, -13.0940,   1
  2010,'VERNON 2 0  ', 161.0000,2,     0.000,     0.000,   2,  10,1.00000,   9.6414,   1
  2011,'PANHANDLE ~2', 500.0000,2,     0.000,     0.000,   2,  10,1.00000,   5.3245,   1
  2012,'PANHANDLE ~3', 161.0000,2,     0.000,     0.000,   2,  10,0.99018,  12.2709,   1
  2013,'PANHANDLE ~4',  18.0000,2,     0.000,     0.000,   2,  10,1.00000,   7.9655,   1
  2014,'CHILDRESS 0 ', 161.0000,1,     0.000,     0.000,   2,  10,0.99568,  19.7249,   1
  2015,'FORESTBURG 0', 161.0000,1,     0.000,     0.000,   2,  11,0.99268, -40.5524,   1
  2016,'SHERMAN 3 0 ', 161.0000,2,     0.000,     0.000,   2,  11,1.00987, -56.3795,   1
  2017,'PANHANDLE ~7', 500.0000,1,     0.000,     0.000,   2,  10,1.03648,   0.2423,   1
  2018,'PANHANDLE ~8', 161.0000,1,     0.000,     0.000,   2,  10,1.00826,   4.1526,   1
  2019,'PANHANDLE ~9',  20.0000,1,     0.000,     0.000,   2,  10,1.03648,   0.2423,   1
  2020,'WICHITA F~12', 161.0000,1,     0.000,     0.000,   2,  11,0.97441, -19.1731,   1
  2021,'PARIS 2 0   ', 500.0000,1,     0.000,     0.000,   2,  11,1.01336, -41.7913,   1
  2022,'PARIS 2 1   ', 161.0000,1,     0.000,     0.000,   2,  11,1.00909, -44.0727,   1
  2023,'PARIS 2 2   ',  13.8000,2,     0.000,     0.000,   2,  11,1.02000, -40.2237,   1
  2024,'PARIS 2 3   ',  13.8000,2,     0.000,     0.000,   2,  11,1.02000, -39.5561,   1
  2025,'WICHITA F~10', 161.0000,1,     0.000,     0.000,   2,  11,0.97189, -19.1853,   1
  2026,'WHEELER 0   ', 161.0000,1,     0.000,     0.000,   2,  10,0.99711,   6.5696,   1
  2027,'DEPORT 0    ', 161.0000,1,     0.000,     0.000,   2,  11,0.99982, -46.2173,   1
  2028,'WICHITA FA~9', 161.0000,1,     0.000,     0.000,   2,  11,0.98160, -20.1064,   1
  2029,'SILVERTON 0 ', 161.0000,2,     0.000,     0.000,   2,  10,1.00000,  21.0371,   1
  2030,'BONHAM 0    ', 161.0000,1,     0.000,     0.000,   2,  11,0.98840, -49.9390,   1
  2031,'MATADOR 0   ', 161.0000,1,     0.000,     0.000,   2,  10,1.00030,  10.9302,   1
  2032,'ARTHUR CIT~1', 161.0000,1,     0.000,     0.000,   2,  11,1.00356, -44.3617,   1
  2033,'LEONARD 0   ', 161.0000,1,     0.000,     0.000,   2,  11,0.99316, -51.4184,   1
  2034,'GORDONVILL~1', 161.0000,1,     0.000,     0.000,   2,  11,1.00645, -55.6805,   1
  2035,'KNOX CITY 0 ', 161.0000,2,     0.000,     0.000,   2,  10,1.00000,  17.0259,   1
  2036,'WICHITA F~13', 161.0000,1,     0.000,     0.000,   2,  11,0.97828, -17.1138,   1
  2037,'LINDSAY 0   ', 161.0000,1,     0.000,     0.000,   2,  11,1.00261, -40.5323,   1
  2038,'ECTOR 0     ', 161.0000,1,     0.000,     0.000,   2,  11,1.01111, -49.0141,   1
  2039,'SUNSET 0    ', 161.0000,1,     0.000,     0.000,   2,  11,0.98185, -38.2296,   1
  2040,'CLARKSVILL~1', 161.0000,1,     0.000,     0.000,   2,  11,1.00566, -44.7930,   1
  2041,'PANHANDLE ~5', 161.0000,2,     0.000,     0.000,   2,  10,1.00000,  16.7147,   1
  2042,'PANHANDLE ~6',  18.0000,2,     0.000,     0.000,   2,  10,1.01000,  19.6665,   1
  2043,'SADLER 0    ', 161.0000,1,     0.000,     0.000,   2,  11,1.00768, -56.0068,   1
  2044,'WHITESBORO 0', 161.0000,1,     0.000,     0.000,   2,  11,0.99948, -45.8648,   1
  2045,'SHEPPARD A~1', 161.0000,1,     0.000,     0.000,   2,  11,0.97536, -19.4406,   1
  2046,'POTTSBORO 0 ', 161.0000,1,     0.000,     0.000,   2,  11,1.00561, -55.2543,   1
  2047,'BELLS 0     ', 161.0000,1,     0.000,     0.000,   2,  11,1.00994, -50.1044,   1
  2048,'CROSBYTON 0 ', 161.0000,2,     0.000,     0.000,   2,  10,1.00000,  13.1022,   1
  2049,'ELECTRA 0   ', 161.0000,2,     0.000,     0.000,   2,  10,1.00000,  -4.4272,   1
  2050,'PATTONVILL~1', 161.0000,1,     0.000,     0.000,   2,  11,0.99247, -49.3001,   1
  2051,'HENRIETTA 0 ', 161.0000,2,     0.000,     0.000,   2,  11,1.00000, -28.5329,   1
  2052,'PANHANDLE~13', 161.0000,1,     0.000,     0.000,   2,  10,0.98906,  15.4644,   1
  2053,'BOWIE 0     ', 161.0000,1,     0.000,     0.000,   2,  11,0.98494, -39.4615,   1
  2054,'WICHITA FA~1', 500.0000,1,     0.000,     0.000,   2,  11,0.97638, -18.9843,   1
  2055,'WICHITA FA~2', 161.0000,1,     0.000,     0.000,   2,  11,0.97464, -18.5422,   1
  2056,'WICHITA FA~3',  18.0000,1,     0.000,     0.000,   2,  11,0.97638, -18.9843,   1
  2057,'WICHITA FA~4',  18.0000,2,     0.000,     0.000,   2,  11,0.99000, -15.7271,   1
  2058,'WHITE DEER 0', 161.0000,1,     0.000,     0.000,   2,  10,0.99990,  15.4702,   1
  2059,'WHITE DEER 1',  13.8000,2,     0.000,     0.000,   2,  10,1.00000,  18.9436,   1
  2060,'ROXTON 0    ', 161.0000,1,     0.000,     0.000,   2,  11,0.99641, -47.7880,   1
  2061,'VERNON 1 0  ', 161.0000,1,     0.000,     0.000,   2,  10,1.00189,   1.1511,   1
  2062,'VERNON 1 1  ',  18.0000,2,     0.000,     0.000,   2,  10,1.02000,   3.4492,   1
  2063,'DENISON 2 0 ', 161.0000,1,     0.000,     0.000,   2,  11,1.00656, -54.4994,   1
  2064,'SUMNER 0    ', 161.0000,1,     0.000,     0.000,   2,  11,1.00194, -45.9295,   1
  2065,'GAINESVILL~1', 161.0000,2,     0.000,     0.000,   2,  11,1.00000, -42.8310,   1
  2066,'ASPERMONT 0 ', 161.0000,1,     0.000,     0.000,   2,  10,0.99375,   9.3210,   1
  2067,'WICHITA F~11', 161.0000,1,     0.000,     0.000,   2,  11,0.97145, -19.6556,   1
  2068,'WINDTHORST 0', 161.0000,1,     0.000,     0.000,   2,  11,0.98695, -19.1935,   1
  2069,'HOWE 0      ', 161.0000,1,     0.000,     0.000,   2,  11,1.02657, -55.3182,   1
  2070,'ARCHER 2 0  ', 161.0000,1,     0.000,     0.000,   2,  11,0.99091, -19.3282,   1
  2071,'ARCHER 2 1  ',  18.0000,2,     0.000,     0.000,   2,  11,1.00000, -15.6253,   1
  2072,'COLLINSVIL~1', 161.0000,1,     0.000,     0.000,   2,  11,1.01821, -52.9215,   1
  2073,'JAYTON 0    ', 161.0000,1,     0.000,     0.000,   2,  10,0.99973,   3.5802,   1
  2074,'JAYTON 1    ', 115.0000,1,     0.000,     0.000,   2,  10,0.99721,   6.0237,   1
  2075,'JAYTON 2    ', 115.0000,1,     0.000,     0.000,   2,  10,0.99721,   6.0237,   1
  2076,'JAYTON 3    ',  24.0000,2,     0.000,     0.000,   2,  10,1.04000,   4.3898,   1
  2077,'MUENSTER 1 0', 161.0000,1,     0.000,     0.000,   2,  11,1.01023, -37.4031,   1
  2078,'MUENSTER 1 1',  13.8000,2,     0.000,     0.000,   2,  11,1.02000, -34.0673,   1
  2079,'PADUCAH 0   ', 161.0000,1,     0.000,     0.000,   2,  10,1.00091,  10.8608,   1
  2080,'NOCONA 0    ', 161.0000,1,     0.000,     0.000,   2,  11,0.99649, -31.4545,   1
  2081,'DODD CITY 0 ', 161.0000,2,     0.000,     0.000,   2,  11,1.00941, -49.0132,   1
  2082,'WICHITA FA~5', 161.0000,1,     0.000,     0.000,   2,  11,0.98215, -15.9804,   1
  2083,'WICHITA FA~6',  20.0000,2,     0.000,     0.000,   2,  11,1.02000, -14.4046,   1
  2084,'WICHITA FA~7',  20.0000,1,     0.000,     0.000,   2,  11,0.98215, -15.9804,   1
  2085,'WICHITA FA~8',  20.0000,1,     0.000,     0.000,   2,  11,0.98215, -15.9804,   1
  2086,'MONTAGUE 0  ', 161.0000,1,     0.000,     0.000,   2,  11,0.98608, -35.6267,   1
  2087,'SPUR 0      ', 161.0000,2,     0.000,     0.000,   2,  10,1.00000,   9.4619,   1
  2088,'ARCHER 1 0  ', 161.0000,1,     0.000,     0.000,   2,  11,0.98916, -19.0969,   1
  2089,'ARCHER 1 1  ',  24.0000,2,     0.000,     0.000,   2,  11,1.00000, -15.4675,   1
  2090,'ANNONA 0    ', 161.0000,1,     0.000,     0.000,   2,  11,1.00032, -46.8450,   1
  2091,'SEYMOUR 0   ', 161.0000,2,     0.000,     0.000,   2,  10,1.00000,  14.7473,   1
  2092,'DENISON 1 0 ', 161.0000,1,     0.000,     0.000,   2,  11,1.00632, -52.4033,   1
  2093,'PANHANDLE~10', 161.0000,2,     0.000,     0.000,   2,  10,1.00000,   8.6143,   1
  2094,'PANHANDLE~11',  13.8000,2,     0.000,     0.000,   2,  10,1.00000,   9.2693,   1
  2095,'PANHANDLE~12',  13.8000,2,     0.000,     0.000,   2,  10,1.00000,   8.9377,   1
  2096,'RALLS 1 0   ', 500.0000,1,     0.000,     0.000,   2,  10,1.01466,  -0.9814,   1
  2097,'RALLS 1 1   ', 230.0000,1,     0.000,     0.000,   2,  10,1.00817,   0.6047,   1
  2098,'RALLS 1 2   ', 161.0000,1,     0.000,     0.000,   2,  10,0.97597,   9.5287,   1
  2099,'RALLS 1 3   ',  18.0000,2,     0.000,     0.000,   2,  10,1.02000,  -0.8397,   1
  2100,'RALLS 1 4   ',  18.0000,2,     0.000,     0.000,   2,  10,1.02000,   1.6515,   1
  2101,'SHERMAN 1 0 ', 500.0000,1,     0.000,     0.000,   2,  11,1.01363, -47.7715,   1
  2102,'SHERMAN 1 1 ', 161.0000,1,     0.000,     0.000,   2,  11,1.01079, -48.9055,   1
  2103,'SHERMAN 1 2 ',  20.0000,1,     0.000,     0.000,   2,  11,1.01363, -47.7715,   1
  2104,'SHERMAN 1 3 ',  20.0000,1,     0.000,     0.000,   2,  11,1.01363, -47.7715,   1
  2105,'SHERMAN 1 4 ',  20.0000,1,     0.000,     0.000,   2,  11,1.01363, -47.7715,   1
  2106,'WHITEWRIGH~1', 161.0000,1,     0.000,     0.000,   2,  11,0.99220, -52.1244,   1
  2107,'SHERMAN 2 0 ', 161.0000,1,     0.000,     0.000,   2,  11,1.00557, -49.8831,   1
  2108,'ROCHESTER 0 ', 161.0000,1,     0.000,     0.000,   2,  10,0.99748,  -5.0175,   1
  2109,'BURKBURNET~1', 161.0000,2,     0.000,     0.000,   2,  11,1.00000, -15.5371,   1
...
0 / END OF BUS DATA, BEGIN LOAD DATA
  1001,'1 ',1,   1,   9,    27.119,     5.888,     0.000,     0.000,     0.000,     0.000,   1
  1002,'1 ',1,   1,   9,    20.115,     4.367,     0.000,     0.000,     0.000,     0.000,   1
  1007,'1 ',1,   1,   9,     9.145,     1.986,     0.000,     0.000,     0.000,     0.000,   1
  1012,'1 ',1,   1,   9,     3.895,     0.846,     0.000,     0.000,     0.000,     0.000,   1
  1013,'1 ',1,   1,   9,     0.666,     0.144,     0.000,     0.000,     0.000,     0.000,   1
  1013,'2 ',1,   1,   9,     1.981,     0.430,     0.000,     0.000,     0.000,     0.000,   1
  1013,'3 ',1,   1,   9,    35.493,     7.706,     0.000,     0.000,     0.000,     0.000,   1
  1014,'1 ',1,   1,   9,     2.897,     0.629,     0.000,     0.000,     0.000,     0.000,   1
  1015,'1 ',1,   1,   9,     9.799,     2.128,     0.000,     0.000,     0.000,     0.000,   1
  1016,'1 ',1,   1,   9,     3.770,     0.819,     0.000,     0.000,     0.000,     0.000,   1
  1017,'1 ',1,   1,   9,    23.940,     5.198,     0.000,     0.000,     0.000,     0.000,   1
  1018,'1 ',1,   1,   9,     0.090,     0.020,     0.000,     0.000,     0.000,     0.000,   1
  1019,'1 ',1,   1,   9,    80.618,    17.503,     0.000,     0.000,     0.000,     0.000,   1
  1024,'1 ',1,   1,   9,    82.266,    17.861,     0.000,     0.000,     0.000,     0.000,   1
  1027,'1 ',1,   1,   9,     0.787,     0.171,     0.000,     0.000,     0.000,     0.000,   1
  1027,'2 ',1,   1,   9,   131.293,    28.506,     0.000,     0.000,     0.000,     0.000,   1
  1028,'1 ',1,   1,   9,     1.860,     0.404,     0.000,     0.000,     0.000,     0.000,   1
  1028,'2 ',1,   1,   9,     0.983,     0.213,     0.000,     0.000,     0.000,     0.000,   1
  1028,'3 ',1,   1,   9,     6.393,     1.388,     0.000,     0.000,     0.000,     0.000,   1
  1028,'4 ',1,   1,   9,     3.833,     0.832,     0.000,     0.000,     0.000,     0.000,   1
  1029,'1 ',1,   1,   9,   108.555,    23.569,     0.000,     0.000,     0.000,     0.000,   1
  1030,'1 ',1,   1,   9,    30.075,     6.530,     0.000,     0.000,     0.000,     0.000,   1
  1030,'2 ',1,   1,   9,     2.063,     0.448,     0.000,     0.000,     0.000,     0.000,   1
  1031,'1 ',1,   1,   9,    12.066,     2.620,     0.000,     0.000,     0.000,     0.000,   1
  1036,'1 ',1,   1,   9,     1.327,     0.288,     0.000,     0.000,     0.000,     0.000,   1
  1036,'2 ',1,   1,   9,    16.416,     3.564,     0.000,     0.000,     0.000,     0.000,   1
  1037,'1 ',1,   1,   9,   133.419,    28.967,     0.000,     0.000,     0.000,     0.000,   1
  1040,'1 ',1,   1,   9,    57.887,    12.568,     0.000,     0.000,     0.000,     0.000,   1
  1044,'1 ',1,   1,   9,     5.888,     1.278,     0.000,     0.000,     0.000,     0.000,   1
  1044,'2 ',1,   1,   9,    13.272,     2.881,     0.000,     0.000,     0.000,     0.000,   1
  1045,'1 ',1,   1,   9,   128.623,    27.926,     0.000,     0.000,     0.000,     0.000,   1
  1046,'1 ',1,   1,   9,     0.008,     0.002,     0.000,     0.000,     0.000,     0.000,   1
  1046,'2 ',1,   1,   9,    14.458,     3.139,     0.000,     0.000,     0.000,     0.000,   1
  1054,'1 ',1,   1,   9,     2.318,     0.503,     0.000,     0.000,     0.000,     0.000,   1
  1054,'2 ',1,   1,   9,     0.677,     0.147,     0.000,     0.000,     0.000,     0.000,   1
  1054,'3 ',1,   1,   9,    16.564,     3.596,     0.000,     0.000,     0.000,     0.000,   1
  1055,'1 ',1,   1,   9,     5.191,     1.127,     0.000,     0.000,     0.000,     0.000,   1
  1058,'1 ',1,   1,   9,     5.332,     1.158,     0.000,     0.000,     0.000,     0.000,   1
  1058,'2 ',1,   1,   9,    12.227,     2.655,     0.000,     0.000,     0.000,     0.000,   1
  1064,'1 ',1,   1,   9,     8.601,     1.867,     0.000,     0.000,     0.000,     0.000,   1
  1064,'2 ',1,   1,   9,   152.904,    33.198,     0.000,     0.000,     0.000,     0.000,   1
  1067,'1 ',1,   1,   9,   132.523,    28.773,     0.000,     0.000,     0.000,     0.000,   1
  1068,'1 ',1,   1,   9,     0.900,     0.195,     0.000,     0.000,     0.000,     0.000,   1
  1068,'2 ',1,   1,   9,    76.620,    16.635,     0.000,     0.000,     0.000,     0.000,   1
  1071,'1 ',1,   1,   9,   119.361,    25.915,     0.000,     0.000,     0.000,     0.000,   1
  1083,'1 ',1,   1,   9,    52.128,    11.318,     0.000,     0.000,     0.000,     0.000,   1
  1085,'1 ',1,   1,   9,     3.813,     0.828,     0.000,     0.000,     0.000,     0.000,   1
  1085,'2 ',1,   1,   9,    23.979,     5.206,     0.000,     0.000,     0.000,     0.000,   1
  1086,'1 ',1,   1,   9,    51.772,    11.240,     0.000,     0.000,     0.000,     0.000,   1
  1087,'1 ',1,   1,   9,     1.186,     0.258,     0.000,     0.000,     0.000,     0.000,   1
  1089,'1 ',1,   1,   9,     1.084,     0.235,     0.000,     0.000,     0.000,     0.000,   1
  1089,'2 ',1,   1,   9,    51.905,    11.269,     0.000,     0.000,     0.000,     0.000,   1
  1091,'1 ',1,   1,   9,     6.150,     1.335,     0.000,     0.000,     0.000,     0.000,   1
  1091,'2 ',1,   1,   9,     9.016,     1.958,     0.000,     0.000,     0.000,     0.000,   1
  2001,'1 ',1,   2,  11,    18.671,     4.054,     0.000,     0.000,     0.000,     0.000,   1
  2001,'2 ',1,   2,  11,    44.435,     9.647,     0.000,     0.000,     0.000,     0.000,   1
  2007,'1 ',1,   2,  11,    12.450,     2.703,     0.000,     0.000,     0.000,     0.000,   1
  2008,'1 ',1,   2,  10,    10.520,     2.284,     0.000,     0.000,     0.000,     0.000,   1
  2009,'1 ',1,   2,  11,    51.071,    11.088,     0.000,     0.000,     0.000,     0.000,   1
  2010,'1 ',1,   2,  10,     6.663,     1.447,     0.000,     0.000,     0.000,     0.000,   1
  2010,'2 ',1,   2,  10,    12.536,     2.722,     0.000,     0.000,     0.000,     0.000,   1
  2010,'3 ',1,   2,  10,     3.821,     0.830,     0.000,     0.000,     0.000,     0.000,   1
  2010,'4 ',1,   2,  10,     0.251,     0.054,     0.000,     0.000,     0.000,     0.000,   1
  2010,'5 ',1,   2,  10,    50.860,    11.042,     0.000,     0.000,     0.000,     0.000,   1
  2014,'1 ',1,   2,  10,     4.729,     1.027,     0.000,     0.000,     0.000,     0.000,   1
  2014,'2 ',1,   2,  10,    28.454,     6.178,     0.000,     0.000,     0.000,     0.000,   1
  2015,'1 ',1,   2,  11,     6.115,     1.328,     0.000,     0.000,     0.000,     0.000,   1
  2016,'1 ',1,   2,  11,    90.393,    19.626,     0.000,     0.000,     0.000,     0.000,   1
  2020,'1 ',1,   2,  11,    62.605,    13.592,     0.000,     0.000,     0.000,     0.000,   1
  2022,'1 ',1,   2,  11,    15.092,     3.277,     0.000,     0.000,     0.000,     0.000,   1
  2025,'1 ',1,   2,  11,    51.701,    11.225,     0.000,     0.000,     0.000,     0.000,   1
  2026,'1 ',1,   2,  10,     3.277,     0.711,     0.000,     0.000,     0.000,     0.000,   1
  2026,'2 ',1,   2,  10,     1.237,     0.269,     0.000,     0.000,     0.000,     0.000,   1
  2026,'3 ',1,   2,  10,     9.361,     2.032,     0.000,     0.000,     0.000,     0.000,   1
  2026,'4 ',1,   2,  10,    10.359,     2.249,     0.000,     0.000,     0.000,     0.000,   1
  2027,'1 ',1,   2,  11,     4.639,     1.007,     0.000,     0.000,     0.000,     0.000,   1
  2028,'1 ',1,   2,  11,    18.581,     4.034,     0.000,     0.000,     0.000,     0.000,   1
  2029,'1 ',1,   2,  10,     4.177,     0.907,     0.000,     0.000,     0.000,     0.000,   1
  2030,'1 ',1,   2,  11,     5.105,     1.108,     0.000,     0.000,     0.000,     0.000,   1
  2030,'2 ',1,   2,  11,    56.419,    12.249,     0.000,     0.000,     0.000,     0.000,   1
  2031,'1 ',1,   2,  10,     1.026,     0.223,     0.000,     0.000,     0.000,     0.000,   1
  2031,'2 ',1,   2,  10,     1.660,     0.360,     0.000,     0.000,     0.000,     0.000,   1
  2031,'3 ',1,   2,  10,     4.839,     1.051,     0.000,     0.000,     0.000,     0.000,   1
  2032,'1 ',1,   2,  11,     4.377,     0.950,     0.000,     0.000,     0.000,     0.000,   1
  2033,'1 ',1,   2,  11,     1.699,     0.369,     0.000,     0.000,     0.000,     0.000,   1
  2033,'2 ',1,   2,  11,    16.012,     3.477,     0.000,     0.000,     0.000,     0.000,   1
  2034,'1 ',1,   2,  11,     6.969,     1.513,     0.000,     0.000,     0.000,     0.000,   1
  2035,'1 ',1,   2,  10,     5.414,     1.176,     0.000,     0.000,     0.000,     0.000,   1
  2035,'2 ',1,   2,  10,     0.697,     0.151,     0.000,     0.000,     0.000,     0.000,   1
  2036,'1 ',1,   2,  11,    54.270,    11.783,     0.000,     0.000,     0.000,     0.000,   1
  2037,'1 ',1,   2,  11,     0.900,     0.195,     0.000,     0.000,     0.000,     0.000,   1
  2037,'2 ',1,   2,  11,     3.668,     0.796,     0.000,     0.000,     0.000,     0.000,   1
  2038,'1 ',1,   2,  11,     3.398,     0.738,     0.000,     0.000,     0.000,     0.000,   1
  2039,'1 ',1,   2,  11,     7.254,     1.575,     0.000,     0.000,     0.000,     0.000,   1
  2040,'1 ',1,   2,  11,    20.753,     4.506,     0.000,     0.000,     0.000,     0.000,   1
  2043,'1 ',1,   2,  11,     5.528,     1.200,     0.000,     0.000,     0.000,     0.000,   1
  2044,'1 ',1,   2,  11,    35.764,     7.765,     0.000,     0.000,     0.000,     0.000,   1
  2045,'1 ',1,   2,  11,    29.500,     6.405,     0.000,     0.000,     0.000,     0.000,   1
  2046,'1 ',1,   2,  11,    28.885,     6.271,     0.000,     0.000,     0.000,     0.000,   1
  2047,'1 ',1,   2,  11,    12.277,     2.666,     0.000,     0.000,     0.000,     0.000,   1
  2047,'2 ',1,   2,  11,     7.239,     1.572,     0.000,     0.000,     0.000,     0.000,   1
  2048,'1 ',1,   2,  10,     8.374,     1.818,     0.000,     0.000,     0.000,     0.000,   1
  2049,'1 ',1,   2,  10,     0.634,     0.138,     0.000,     0.000,     0.000,     0.000,   1
  2049,'2 ',1,   2,  10,     0.756,     0.164,     0.000,     0.000,     0.000,     0.000,   1
  2049,'3 ',1,   2,  10,    13.710,     2.977,     0.000,     0.000,     0.000,     0.000,   1
  2050,'1 ',1,   2,  11,     4.772,     1.036,     0.000,     0.000,     0.000,     0.000,   1
  2051,'1 ',1,   2,  11,    23.294,     5.057,     0.000,     0.000,     0.000,     0.000,   1
  2052,'1 ',1,   2,  10,    12.344,     2.680,     0.000,     0.000,     0.000,     0.000,   1
  2052,'2 ',1,   2,  10,    20.068,     4.357,     0.000,     0.000,     0.000,     0.000,   1
  2053,'1 ',1,   2,  11,    38.019,     8.254,     0.000,     0.000,     0.000,     0.000,   1
  2055,'1 ',1,   2,  11,    64.754,    14.059,     0.000,     0.000,     0.000,     0.000,   1
  2060,'1 ',1,   2,  11,     4.952,     1.075,     0.000,     0.000,     0.000,     0.000,   1
  2063,'1 ',1,   2,  11,    85.629,    18.591,     0.000,     0.000,     0.000,     0.000,   1
  2064,'1 ',1,   2,  11,     9.185,     1.994,     0.000,     0.000,     0.000,     0.000,   1
  2064,'2 ',1,   2,  11,     3.927,     0.853,     0.000,     0.000,     0.000,     0.000,   1
  2065,'1 ',1,   2,  11,   102.260,    22.202,     0.000,     0.000,     0.000,     0.000,   1
  2066,'1 ',1,   2,  10,     5.285,     1.147,     0.000,     0.000,     0.000,     0.000,   1
  2066,'2 ',1,   2,  10,     3.316,     0.720,     0.000,     0.000,     0.000,     0.000,   1
  2066,'3 ',1,   2,  10,     0.681,     0.148,     0.000,     0.000,     0.000,     0.000,   1
  2067,'1 ',1,   2,  11,    70.427,    15.291,     0.000,     0.000,     0.000,     0.000,   1
  2068,'1 ',1,   2,  11,     7.517,     1.632,     0.000,     0.000,     0.000,     0.000,   1
  2069,'1 ',1,   2,  11,    28.611,     6.212,     0.000,     0.000,     0.000,     0.000,   1
  2072,'1 ',1,   2,  11,    12.665,     2.750,     0.000,     0.000,     0.000,     0.000,   1
  2079,'1 ',1,   2,  10,     5.845,     1.269,     0.000,     0.000,     0.000,     0.000,   1
  2080,'1 ',1,   2,  11,    22.096,     4.797,     0.000,     0.000,     0.000,     0.000,   1
  2081,'1 ',1,   2,  11,     5.826,     1.265,     0.000,     0.000,     0.000,     0.000,   1
  2082,'1 ',1,   2,  11,    77.035,    16.725,     0.000,     0.000,     0.000,     0.000,   1
  2086,'1 ',1,   2,  11,     2.862,     0.621,     0.000,     0.000,     0.000,     0.000,   1
  2087,'1 ',1,   2,  10,    10.304,     2.237,     0.000,     0.000,     0.000,     0.000,   1
  2090,'1 ',1,   2,  11,     3.163,     0.687,     0.000,     0.000,     0.000,     0.000,   1
  2091,'1 ',1,   2,  10,    22.245,     4.830,     0.000,     0.000,     0.000,     0.000,   1
  2092,'1 ',1,   2,  11,    31.461,     6.831,     0.000,     0.000,     0.000,     0.000,   1
  2106,'1 ',1,   2,  11,    18.796,     4.081,     0.000,     0.000,     0.000,     0.000,   1
  2107,'1 ',1,   2,  11,    96.767,    21.009,     0.000,     0.000,     0.000,     0.000,   1
  2108,'1 ',1,   2,  10,     2.799,     0.608,     0.000,     0.000,     0.000,     0.000,   1
  2109,'1 ',1,   2,  11,    44.122,     9.579,     0.000,     0.000,     0.000,     0.000,   1
  2110,'1 ',1,   2,  11,    11.209,     2.434,     0.000,     0.000,     0.000,     0.000,   1
  2111,'1 ',1,   2,  11,     9.138,     1.984,     0.000,     0.000,     0.000,     0.000,   1
  2111,'2 ',1,   2,  11,     9.071,     1.969,     0.000,     0.000,     0.000,     0.000,   1
  2112,'1 ',1,   2,  11,     5.927,     1.287,     0.000,     0.000,     0.000,     0.000,   1
  2114,'1 ',1,   2,  11,    92.363,    20.053,     0.000,     0.000,     0.000,     0.000,   1
  2121,'1 ',1,   2,  11,     3.046,     0.661,     0.000,     0.000,     0.000,     0.000,   1
  2122,'1 ',1,   2,  11,     8.774,     1.905,     0.000,     0.000,     0.000,     0.000,   1
  2124,'1 ',1,   2,  11,    27.777,     6.031,     0.000,     0.000,     0.000,     0.000,   1
  2125,'1 ',1,   2,  11,     5.293,     1.149,     0.000,     0.000,     0.000,     0.000,   1
  2126,'1 ',1,   2,  11,    18.577,     4.033,     0.000,     0.000,     0.000,     0.000,   1
  2129,'1 ',1,   2,  11,     8.656,     1.879,     0.000,     0.000,     0.000,     0.000,   1
  2132,'1 ',1,   2,  10,    15.582,     3.383,     0.000,     0.000,     0.000,     0.000,   1
  2133,'1 ',1,   2,  11,     7.411,     1.609,     0.000,     0.000,     0.000,     0.000,   1
  3002,'1 ',1,   3,  28,   147.282,    31.977,     0.000,     0.000,     0.000,     0.000,   1
  3005,'1 ',1,   3,  28,     1.034,     0.224,     0.000,     0.000,     0.000,     0.000,   1
  3005,'2 ',1,   3,  28,     1.077,     0.234,     0.000,     0.000,     0.000,     0.000,   1
  3005,'3 ',1,   3,  28,     7.470,     1.622,     0.000,     0.000,     0.000,     0.000,   1
  3006,'1 ',1,   3,  27,     9.588,     2.082,     0.000,     0.000,     0.000,     0.000,   1
  3007,'1 ',1,   3,  27,    19.528,     4.240,     0.000,     0.000,     0.000,     0.000,   1
  3008,'1 ',1,   3,  27,    24.790,     5.382,     0.000,     0.000,     0.000,     0.000,   1
  3008,'2 ',1,   3,  27,     1.061,     0.230,     0.000,     0.000,     0.000,     0.000,   1
  3009,'1 ',1,   3,  28,    16.365,     3.553,     0.000,     0.000,     0.000,     0.000,   1
  3010,'1 ',1,   3,  28,     6.096,     1.323,     0.000,     0.000,     0.000,     0.000,   1
  3011,'1 ',1,   3,  28,    24.770,     5.378,     0.000,     0.000,     0.000,     0.000,   1
  3011,'2 ',1,   3,  28,    10.645,     2.311,     0.000,     0.000,     0.000,     0.000,   1
  3012,'1 ',1,   3,  28,     0.736,     0.160,     0.000,     0.000,     0.000,     0.000,   1
  3013,'1 ',1,   3,  27,    84.247,    18.291,     0.000,     0.000,     0.000,     0.000,   1
  3014,'1 ',1,   3,  28,    28.713,     6.234,     0.000,     0.000,     0.000,     0.000,   1
  3015,'1 ',1,   3,  27,     7.000,     1.520,     0.000,     0.000,     0.000,     0.000,   1
  3021,'1 ',1,   3,  27,     0.685,     0.149,     0.000,     0.000,     0.000,     0.000,   1
  3021,'2 ',1,   3,  27,     1.848,     0.401,     0.000,     0.000,     0.000,     0.000,   1
  3022,'1 ',1,   3,  27,    32.091,     6.967,     0.000,     0.000,     0.000,     0.000,   1
  3023,'1 ',1,   3,  27,    13.581,     2.949,     0.000,     0.000,     0.000,     0.000,   1
  3024,'1 ',1,   3,  28,    13.221,     2.870,     0.000,     0.000,     0.000,     0.000,   1
  3025,'1 ',1,   3,  28,    17.845,     3.874,     0.000,     0.000,     0.000,     0.000,   1
  3029,'1 ',1,   3,  28,     6.350,     1.379,     0.000,     0.000,     0.000,     0.000,   1
  3030,'1 ',1,   3,  27,   169.285,    36.754,     0.000,     0.000,     0.000,     0.000,   1
  3031,'1 ',1,   3,  27,    19.227,     4.174,     0.000,     0.000,     0.000,     0.000,   1
  3032,'1 ',1,   3,  27,    95.088,    20.645,     0.000,     0.000,     0.000,     0.000,   1
  3035,'1 ',1,   3,  28,     4.522,     0.982,     0.000,     0.000,     0.000,     0.000,   1
  3036,'1 ',1,   3,  28,     1.695,     0.368,     0.000,     0.000,     0.000,     0.000,   1
  3036,'2 ',1,   3,  28,     5.876,     1.276,     0.000,     0.000,     0.000,     0.000,   1
  3040,'1 ',1,   3,  27,    19.062,     4.139,     0.000,     0.000,     0.000,     0.000,   1
  3042,'1 ',1,   3,  27,     6.546,     1.421,     0.000,     0.000,     0.000,     0.000,   1
  3042,'2 ',1,   3,  27,     4.878,     1.059,     0.000,     0.000,     0.000,     0.000,   1
  3049,'1 ',1,   3,  27,    13.812,     2.999,     0.000,     0.000,     0.000,     0.000,   1
  3051,'1 ',1,   3,  28,     1.100,     0.239,     0.000,     0.000,     0.000,     0.000,   1
  3051,'2 ',1,   3,  28,   188.503,    40.927,     0.000,     0.000,     0.000,     0.000,   1
  3052,'1 ',1,   3,  28,    10.539,     2.288,     0.000,     0.000,     0.000,     0.000,   1
  3066,'1 ',1,   3,  28,    28.756,     6.243,     0.000,     0.000,     0.000,     0.000,   1
  3069,'1 ',1,   3,  27,     4.976,     1.080,     0.000,     0.000,     0.000,     0.000,   1
  3072,'1 ',1,   3,  27,     7.810,     1.696,     0.000,     0.000,     0.000,     0.000,   1
  3075,'1 ',1,   3,  28,    15.899,     3.452,     0.000,     0.000,     0.000,     0.000,   1
  3076,'1 ',1,   3,  28,    14.086,     3.058,     0.000,     0.000,     0.000,     0.000,   1
  3077,'1 ',1,   3,  27,    89.595,    19.452,     0.000,     0.000,     0.000,     0.000,   1
  3093,'1 ',1,   3,  28,     6.585,     1.430,     0.000,     0.000,     0.000,     0.000,   1
  3099,'1 ',1,   3,  27,    15.762,     3.422,     0.000,     0.000,     0.000,     0.000,   1
  3100,'1 ',1,   3,  27,    11.126,     2.416,     0.000,     0.000,     0.000,     0.000,   1
  3101,'1 ',1,   3,  28,     0.137,     0.030,     0.000,     0.000,     0.000,     0.000,   1
  3101,'2 ',1,   3,  28,     3.645,     0.791,     0.000,     0.000,     0.000,     0.000,   1
  3101,'3 ',1,   3,  28,     8.527,     1.851,     0.000,     0.000,     0.000,     0.000,   1
  3102,'1 ',1,   3,  27,    98.208,    21.322,     0.000,     0.000,     0.000,     0.000,   1
  3103,'1 ',1,   3,  27,     0.435,     0.094,     0.000,     0.000,     0.000,     0.000,   1
  3103,'2 ',1,   3,  27,    50.875,    11.046,     0.000,     0.000,     0.000,     0.000,   1
...
0 / END OF LOAD DATA, BEGIN GENERATOR DATA
  1004,'1 ',   158.250,  -176.493,    44.940,   -30.380,1.01000,     0,   253.200,   0.00000,   1.00000,   0.00000,   0.00000,1.00000,1,  100.0,   211.000,    63.300,   1,1.0000
  1006,'1 ',    25.730,     1.252,     7.310,    -4.940,1.00000,     0,    41.160,   0.00000,   1.00000,   0.00000,   0.00000,1.00000,1,  100.0,    34.300,    10.290,   1,1.0000
  1007,'1 ',   216.594,     0.000,     0.000,     0.000,1.00000,     0,   601.650,   0.00000,   1.00000,   0.00000,   0.00000,1.00000,1,  100.0,   481.320,     0.000,   1,1.0000
  1009,'1 ',    61.870,    -5.444,    17.570,   -11.880,1.00000,     0,    99.000,   0.00000,   1.00000,   0.00000,   0.00000,1.00000,1,  100.0,    82.500,    24.750,   1,1.0000
  1011,'1 ',    10.000,     0.000,     0.000,     0.000,1.00000,     0,    12.000,   0.00000,   1.00000,   0.00000,   0.00000,1.00000,1,  100.0,    10.000,     3.000,   1,1.0000
  1016,'1 ',   439.470,   -79.741,   381.179,  -381.179,1.00000,     0,  1220.750,   0.00000,   1.00000,   0.00000,   0.00000,1.00000,1,  100.0,   976.600,     0.000,   1,1.0000
  1016,'2 ',   135.000,   -24.496,   117.094,  -117.094,1.00000,     0,   375.000,   0.00000,   1.00000,   0.00000,   0.00000,1.00000,1,  100.0,   300.000,     0.000,   1,1.0000
  1021,'1 ',   149.630,   -10.931,    42.490,   -28.730,1.00000,     0,   239.400,   0.00000,   1.00000,   0.00000,   0.00000,1.00000,1,  100.0,   199.500,    59.850,   1,1.0000
  1022,'1 ',   119.790,     0.000,     0.000,     0.000,1.00000,     0,   332.750,   0.00000,   1.00000,   0.00000,   0.00000,1.00000,1,  100.0,   266.200,     0.000,   1,1.0000
  1023,'1 ',   135.000,    23.485,    38.340,   -25.920,1.01000,     0,   216.000,   0.00000,   1.00000,   0.00000,   0.00000,1.00000,1,  100.0,   180.000,    54.000,   1,1.0000
  1023,'2 ',   119.790,     0.000,     0.000,     0.000,1.01000,     0,   332.750,   0.00000,   1.00000,   0.00000,   0.00000,1.00000,1,  100.0,   266.200,     0.000,   1,1.0000
  1026,'1 ',    93.150,     4.412,    26.450,   -17.880,1.00000,     0,   149.040,   0.00000,   1.00000,   0.00000,   0.00000,1.00000,1,  100.0,   124.200,    37.260,   1,1.0000
  1027,'1 ',     1.620,     3.161,     1.405,    -1.405,1.00000,     0,     4.500,   0.00000,   1.00000,   0.00000,   0.00000,1.00000,1,  100.0,     3.600,     0.000,   1,1.0000
  1028,'1 ',   253.755,  -107.099,   220.097,  -220.097,1.00000,     0,   704.875,   0.00000,   1.00000,   0.00000,   0.00000,1.00000,1,  100.0,   563.900,     0.000,   1,1.0000
  1029,'1 ',    63.135,    -8.788,    54.761,   -54.761,1.00000,     0,   175.375,   0.00000,   1.00000,   0.00000,   0.00000,1.00000,1,  100.0,   140.300,     0.000,   1,1.0000
  1030,'1 ',    22.500,     0.000,     0.000,     0.000,1.00000,     0,    62.500,   0.00000,   1.00000,   0.00000,   0.00000,1.00000,1,  100.0,    50.000,     0.000,   1,1.0000
  1032,'1 ',   209.138,     0.000,     0.000,     0.000,1.00000,     0,   580.938,   0.00000,   1.00000,   0.00000,   0.00000,1.00000,1,  100.0,   464.750,     0.000,   1,1.0000
  1033,'1 ',   208.500,   107.422,    59.210,   -40.030,1.00000,     0,   333.600,   0.00000,   1.00000,   0.00000,   0.00000,1.00000,1,  100.0,   278.000,    83.400,   1,1.0000
  1033,'2 ',   209.138,   107.751,     0.000,     0.000,1.00000,     0,   580.938,   0.00000,   1.00000,   0.00000,   0.00000,1.00000,1,  100.0,   464.750,     0.000,   1,1.0000
  1035,'1 ',    67.500,    -2.135,    19.170,   -12.960,1.00000,     0,   108.000,   0.00000,   1.00000,   0.00000,   0.00000,1.00000,1,  100.0,    90.000,    27.000,   1,1.0000
  1036,'1 ',   117.900,     0.000,     0.000,     0.000,1.00000,     0,   327.500,   0.00000,   1.00000,   0.00000,   0.00000,1.00000,1,  100.0,   262.000,     0.000,   1,1.0000
  1037,'1 ',    81.000,     0.000,     0.000,     0.000,1.00000,     0,   225.000,   0.00000,   1.00000,   0.00000,   0.00000,1.00000,1,  100.0,   180.000,     0.000,   1,1.0000
  1039,'1 ',   110.630,     1.297,    31.420,   -21.240,1.00000,     0,   177.000,   0.00000,   1.00000,   0.00000,   0.00000,1.00000,1,  100.0,   147.500,    44.250,   1,1.0000
  1040,'1 ',    72.315,   -41.140,    62.723,   -62.723,1.00000,     0,   200.875,   0.00000,   1.00000,   0.00000,   0.00000,1.00000,1,  100.0,   160.700,     0.000,   1,1.0000
  1040,'2 ',   487.755,     0.000,     0.000,     0.000,1.00000,     0,  1354.875,   0.00000,   1.00000,   0.00000,   0.00000,1.00000,1,  100.0,  1083.900,     0.000,   1,1.0000
  1042,'1 ',     0.000,     0.000,    25.960,   -17.550,1.00000,     0,   146.280,   0.00000,   1.00000,   0.00000,   0.00000,1.00000,0,  100.0,   121.900,    36.570,   1,1.0000
  1043,'1 ',    44.100,    -2.353,    12.520,    -8.470,1.00000,     0,    70.560,   0.00000,   1.00000,   0.00000,   0.00000,1.00000,1,  100.0,    58.800,    17.640,   1,1.0000
  1044,'1 ',   136.080,   -12.721,   118.030,  -118.030,1.00000,     0,   378.000,   0.00000,   1.00000,   0.00000,   0.00000,1.00000,1,  100.0,   302.400,     0.000,   1,1.0000
  1046,'1 ',   686.025,   -98.772,   595.031,  -595.031,1.00000,     0,  1905.625,   0.00000,   1.00000,   0.00000,   0.00000,1.00000,1,  100.0,  1524.500,     0.000,   1,1.0000
  1048,'1 ',     0.000,     0.000,   165.530,   -36.100,1.00000,     0,   390.240,   0.00000,   0.35000,   0.00000,   0.00000,1.00000,0,  100.0,   325.200,    97.560,   1,1.0000
  1049,'1 ',     0.000,     0.000,   165.530,   -36.100,1.00000,     0,   390.240,   0.00000,   0.23000,   0.00000,   0.00000,1.00000,0,  100.0,   325.200,    97.560,   1,1.0000
  1050,'1 ',    89.400,    10.903,    45.500,    -9.920,1.00000,     0,   107.280,   0.00000,   0.15000,   0.00000,   0.00000,1.00000,1,  100.0,    89.400,    26.820,   1,1.0000
  1051,'1 ',    89.400,     7.751,    45.500,    -9.920,1.00000,     0,   107.280,   0.00000,   0.31000,   0.00000,   0.00000,1.00000,1,  100.0,    89.400,    26.820,   1,1.0000
  1052,'1 ',    89.400,    11.780,    45.500,    -9.920,1.00000,     0,   107.280,   0.00000,   0.26000,   0.00000,   0.00000,1.00000,1,  100.0,    89.400,    26.820,   1,1.0000
  1053,'1 ',     0.000,     0.000,    91.010,   -19.850,1.00000,     0,   214.560,   0.00000,   0.28000,   0.00000,   0.00000,1.00000,0,  100.0,   178.800,    53.640,   1,1.0000
  1055,'1 ',   111.330,     9.687,    96.563,   -96.563,1.00000,     0,   309.250,   0.00000,   1.00000,   0.00000,   0.00000,1.00000,1,  100.0,   247.400,     0.000,   1,1.0000
  1057,'1 ',     0.000,     0.000,    25.560,   -17.280,1.00000,     0,   144.000,   0.00000,   1.00000,   0.00000,   0.00000,1.00000,0,  100.0,   120.000,    36.000,   1,1.0000
  1059,'1 ',     0.000,     0.000,     2.850,    -0.620,1.04000,     0,     6.720,   0.00000,   0.31000,   0.00000,   0.00000,1.00000,0,  100.0,     5.600,     1.680,   1,1.0000
  1060,'1 ',     0.000,     0.000,     1.020,    -0.220,1.04000,     0,     2.400,   0.00000,   0.18000,   0.00000,   0.00000,1.00000,0,  100.0,     2.000,     0.600,   1,1.0000
  1061,'1 ',    52.501,   -49.443,    45.536,   -45.536,1.00000,     0,   145.833,   0.00000,   1.00000,   0.00000,   0.00000,1.00000,1,  100.0,   116.667,     0.000,   1,1.0000
  1062,'1 ',     0.000,     0.000,     0.000,     0.000,1.01000,     0,     1.800,   0.00000,   1.00000,   0.00000,   0.00000,1.00000,0,  100.0,     1.500,     0.450,   1,1.0000
  1062,'2 ',    52.501,    11.079,    45.536,   -45.536,1.01000,     0,   145.833,   0.00000,   1.00000,   0.00000,   0.00000,1.00000,1,  100.0,   116.667,     0.000,   1,1.0000
  1063,'1 ',     0.000,     0.000,     0.000,     0.000,1.01000,     0,   276.000,   0.00000,   1.00000,   0.00000,   0.00000,1.00000,0,  100.0,   230.000,    69.000,   1,1.0000
  1063,'2 ',    52.501,     8.240,    45.536,   -45.536,1.01000,     0,   145.833,   0.00000,   1.00000,   0.00000,   0.00000,1.00000,1,  100.0,   116.667,     0.000,   1,1.0000
  1066,'1 ',   106.880,    -1.418,    30.350,   -20.520,1.00000,     0,   171.000,   0.00000,   1.00000,   0.00000,   0.00000,1.00000,1,  100.0,   142.500,    42.750,   1,1.0000
  1070,'1 ',   120.380,    42.598,    34.190,   -23.110,1.04000,     0,   192.600,   0.00000,   1.00000,   0.00000,   0.00000,1.00000,1,  100.0,   160.500,    48.150,   1,1.0000
  1072,'1 ',   192.130,    75.998,    97.800,   -21.330,1.01000,     0,   230.560,   0.00000,   0.29000,   0.00000,   0.00000,1.00000,1,  100.0,   192.130,    57.640,   1,1.0000
  1073,'1 ',   192.130,    54.560,    97.800,   -21.330,1.01000,     0,   230.560,   0.00000,   0.31000,   0.00000,   0.00000,1.00000,1,  100.0,   192.130,    57.640,   1,1.0000
  1074,'1 ',   192.130,    57.614,    97.800,   -21.330,1.01000,     0,   230.560,   0.00000,   0.40000,   0.00000,   0.00000,1.00000,1,  100.0,   192.130,    57.640,   1,1.0000
  1075,'1 ',   192.130,    70.758,    97.800,   -21.330,1.01000,     0,   230.560,   0.00000,   0.27000,   0.00000,   0.00000,1.00000,1,  100.0,   192.130,    57.640,   1,1.0000
  1076,'1 ',     0.000,     0.000,    97.800,   -21.330,1.01000,     0,   230.560,   0.00000,   0.13000,   0.00000,   0.00000,1.00000,0,  100.0,   192.130,    57.640,   1,1.0000
  1077,'1 ',     0.000,     0.000,    97.800,   -21.330,1.01000,     0,   230.560,   0.00000,   0.39000,   0.00000,   0.00000,1.00000,0,  100.0,   192.130,    57.640,   1,1.0000
  1078,'1 ',    95.500,    37.614,    48.610,   -10.600,1.01000,     0,   114.600,   0.00000,   0.12000,   0.00000,   0.00000,1.00000,1,  100.0,    95.500,    28.650,   1,1.0000
  1079,'1 ',    95.500,  -235.550,    48.610,   -10.600,1.01000,     0,   114.600,   0.00000,   0.44000,   0.00000,   0.00000,1.00000,1,  100.0,    95.500,    28.650,   1,1.0000
  1080,'1 ',    95.500,    32.755,    48.610,   -10.600,1.01000,     0,   114.600,   0.00000,   0.13000,   0.00000,   0.00000,1.00000,1,  100.0,    95.500,    28.650,   1,1.0000
  1081,'1 ',     0.000,     0.000,   145.830,   -31.800,1.01000,     0,   343.800,   0.00000,   0.15000,   0.00000,   0.00000,1.00000,0,  100.0,   286.500,    85.950,   1,1.0000
  1082,'1 ',   112.500,   -49.680,    31.950,   -21.600,1.00000,     0,   180.000,   0.00000,   1.00000,   0.00000,   0.00000,1.00000,1,  100.0,   150.000,    45.000,   1,1.0000
  1083,'1 ',    86.265,   -74.823,    74.823,   -74.823,1.00000,     0,   239.625,   0.00000,   1.00000,   0.00000,   0.00000,1.00000,1,  100.0,   191.700,     0.000,   1,1.0000
  1083,'2 ',   718.043,   -89.270,     0.000,     0.000,1.00000,     0,  1994.563,   0.00000,   1.00000,   0.00000,   0.00000,1.00000,1,  100.0,  1595.650,     0.000,   1,1.0000
  1084,'1 ',    86.620,   123.431,    24.600,   -16.630,1.04000,     0,   138.600,   0.00000,   1.00000,   0.00000,   0.00000,1.00000,1,  100.0,   115.500,    34.650,   1,1.0000
  1085,'1 ',    68.670,   -30.144,    59.562,   -59.562,1.00000,     0,   190.750,   0.00000,   1.00000,   0.00000,   0.00000,1.00000,1,  100.0,   152.600,     0.000,   1,1.0000
  1085,'2 ',   113.846,     0.000,     0.000,     0.000,1.00000,     0,   316.237,   0.00000,   1.00000,   0.00000,   0.00000,1.00000,1,  100.0,   252.990,     0.000,   1,1.0000
  1086,'1 ',    45.000,     0.000,     0.000,     0.000,1.00000,     0,   125.000,   0.00000,   1.00000,   0.00000,   0.00000,1.00000,1,  100.0,   100.000,     0.000,   1,1.0000
  1088,'1 ',    56.250,     7.484,    15.970,   -10.800,1.00000,     0,    90.000,   0.00000,   1.00000,   0.00000,   0.00000,1.00000,1,  100.0,    75.000,    22.500,   1,1.0000
  1089,'1 ',    95.040,   -34.161,    82.434,   -82.434,1.00000,     0,   264.000,   0.00000,   1.00000,   0.00000,   0.00000,1.00000,1,  100.0,   211.200,     0.000,   1,1.0000
  1089,'2 ',    68.220,     0.000,     0.000,     0.000,1.00000,     0,   189.500,   0.00000,   1.00000,   0.00000,   0.00000,1.00000,1,  100.0,   151.600,     0.000,   1,1.0000
  1090,'1 ',   114.370,    62.868,    32.480,   -21.960,1.02000,     0,   183.000,   0.00000,   1.00000,   0.00000,   0.00000,1.00000,1,  100.0,   152.500,    45.750,   1,1.0000
  1090,'2 ',    27.000,    14.842,     7.670,    -5.180,1.02000,     0,    43.200,   0.00000,   1.00000,   0.00000,   0.00000,1.00000,1,  100.0,    36.000,    10.800,   1,1.0000
  2004,'1 ',     0.000,     0.000,   199.430,   -43.490,1.02000,     0,   470.160,   0.00000,   0.39000,   0.00000,   0.00000,1.00000,0,  100.0,   391.800,   117.540,   1,1.0000
  2005,'1 ',     0.000,     0.000,   199.430,   -43.490,1.02000,     0,   470.160,   0.00000,   0.23000,   0.00000,   0.00000,1.00000,0,  100.0,   391.800,   117.540,   1,1.0000
  2006,'1 ',     0.000,     0.000,   199.430,   -43.490,1.02000,     0,   470.160,   0.00000,   0.47000,   0.00000,   0.00000,1.00000,0,  100.0,   391.800,   117.540,   1,1.0000
  2008,'1 ',   108.000,     0.000,     0.000,     0.000,1.00000,     0,   300.000,   0.00000,   1.00000,   0.00000,   0.00000,1.00000,1,  100.0,   240.000,     0.000,   1,1.0000
  2010,'1 ',   157.635,   -90.156,   136.726,  -136.726,1.00000,     0,   437.875,   0.00000,   1.00000,   0.00000,   0.00000,1.00000,1,  100.0,   350.300,     0.000,   1,1.0000
  2011,'1 ',     8.626,  -260.689,     7.481,    -7.481,1.00000,     0,    23.958,   0.00000,   1.00000,   0.00000,   0.00000,1.00000,1,  100.0,    19.167,     0.000,   1,1.0000
  2012,'1 ',     8.626,     7.481,     7.481,     7.481,1.00000,     0,    23.958,   0.00000,   1.00000,   0.00000,   0.00000,1.00000,1,  100.0,    19.167,     0.000,   1,1.0000
  2013,'1 ',   150.450,     1.235,    42.730,   -28.890,1.00000,     0,   240.720,   0.00000,   1.00000,   0.00000,   0.00000,1.00000,1,  100.0,   200.600,    60.180,   1,1.0000
  2013,'2 ',     8.626,     0.071,     7.481,    -7.481,1.00000,     0,    23.958,   0.00000,   1.00000,   0.00000,   0.00000,1.00000,1,  100.0,    19.167,     0.000,   1,1.0000
  2016,'1 ',     9.135,     0.000,     0.000,     0.000,1.00000,     0,    25.375,   0.00000,   1.00000,   0.00000,   0.00000,1.00000,1,  100.0,    20.300,     0.000,   1,1.0000
  2019,'1 ',     0.000,     0.000,    46.430,   -31.390,1.04000,     0,   261.600,   0.00000,   1.00000,   0.00000,   0.00000,1.00000,0,  100.0,   218.000,    65.400,   1,1.0000
  2023,'1 ',    83.330,    19.701,    42.420,    -9.250,1.02000,     0,   100.000,   0.00000,   0.14000,   0.00000,   0.00000,1.00000,1,  100.0,    83.330,    25.000,   1,1.0000
  2024,'1 ',   166.670,    28.700,    84.830,   -18.500,1.02000,     0,   200.000,   0.00000,   0.31000,   0.00000,   0.00000,1.00000,1,  100.0,   166.670,    50.000,   1,1.0000
  2029,'1 ',    67.455,    -5.058,    58.508,   -58.508,1.00000,     0,   187.375,   0.00000,   1.00000,   0.00000,   0.00000,1.00000,1,  100.0,   149.900,     0.000,   1,1.0000
  2029,'2 ',   432.765,   -32.452,   375.363,  -375.363,1.00000,     0,  1202.125,   0.00000,   1.00000,   0.00000,   0.00000,1.00000,1,  100.0,   961.700,     0.000,   1,1.0000
  2029,'3 ',   225.900,     0.000,     0.000,     0.000,1.00000,     0,   627.500,   0.00000,   1.00000,   0.00000,   0.00000,1.00000,1,  100.0,   502.000,     0.000,   1,1.0000
  2035,'1 ',   361.980,   -29.009,   313.967,  -313.967,1.00000,     0,  1005.500,   0.00000,   1.00000,   0.00000,   0.00000,1.00000,1,  100.0,   804.400,     0.000,   1,1.0000
  2041,'1 ',    94.523,   -33.897,    81.985,   -81.985,1.00000,     0,   262.563,   0.00000,   1.00000,   0.00000,   0.00000,1.00000,1,  100.0,   210.050,     0.000,   1,1.0000
  2041,'2 ',   127.147,   -45.596,   110.283,  -110.283,1.00000,     0,   353.188,   0.00000,   1.00000,   0.00000,   0.00000,1.00000,1,  100.0,   282.550,     0.000,   1,1.0000
  2041,'3 ',    51.840,   -18.590,    44.964,   -44.964,1.00000,     0,   144.000,   0.00000,   1.00000,   0.00000,   0.00000,1.00000,1,  100.0,   115.200,     0.000,   1,1.0000
  2042,'1 ',    59.700,    11.418,    16.950,   -11.460,1.01000,     0,    95.520,   0.00000,   1.00000,   0.00000,   0.00000,1.00000,1,  100.0,    79.600,    23.880,   1,1.0000
  2042,'2 ',    94.523,    18.079,    81.985,   -81.985,1.01000,     0,   262.563,   0.00000,   1.00000,   0.00000,   0.00000,1.00000,1,  100.0,   210.050,     0.000,   1,1.0000
  2042,'3 ',   127.147,    24.319,   110.283,  -110.283,1.01000,     0,   353.188,   0.00000,   1.00000,   0.00000,   0.00000,1.00000,1,  100.0,   282.550,     0.000,   1,1.0000
  2042,'4 ',    51.840,     9.915,    44.964,   -44.964,1.01000,     0,   144.000,   0.00000,   1.00000,   0.00000,   0.00000,1.00000,1,  100.0,   115.200,     0.000,   1,1.0000
  2048,'1 ',   111.285,    -5.813,    96.524,   -96.524,1.00000,     0,   309.125,   0.00000,   1.00000,   0.00000,   0.00000,1.00000,1,  100.0,   247.300,     0.000,   1,1.0000
  2049,'1 ',   490.455,    25.335,   425.401,  -425.401,1.00000,     0,  1362.375,   0.00000,   1.00000,   0.00000,   0.00000,1.00000,1,  100.0,  1089.900,     0.000,   1,1.0000
  2051,'1 ',    91.845,    54.575,    79.663,   -79.663,1.00000,     0,   255.125,   0.00000,   1.00000,   0.00000,   0.00000,1.00000,1,  100.0,   204.100,     0.000,   1,1.0000
  2056,'1 ',     0.000,     0.000,     2.800,    -0.730,0.99000,     0,     7.200,   0.00000,   0.31000,   0.00000,   0.00000,1.00000,0,  100.0,     6.000,     1.800,   1,1.0000
  2057,'1 ',   417.765,   106.021,   335.520,   -87.840,0.99000,     0,   864.000,   0.00000,   0.36000,   0.00000,   0.00000,1.00000,1,  100.0,   720.000,   216.000,   1,1.0000
  2059,'1 ',    60.000,    -1.278,    17.040,   -11.520,1.00000,     0,    96.000,   0.00000,   1.00000,   0.00000,   0.00000,1.00000,1,  100.0,    80.000,    24.000,   1,1.0000
  2062,'1 ',   101.550,    43.065,    28.840,   -19.500,1.02000,     0,   162.480,   0.00000,   1.00000,   0.00000,   0.00000,1.00000,1,  100.0,   135.400,    40.620,   1,1.0000
  2065,'1 ',   141.615,  -102.147,   122.831,  -122.831,1.00000,     0,   393.375,   0.00000,   1.00000,   0.00000,   0.00000,1.00000,1,  100.0,   314.700,     0.000,   1,1.0000
  2065,'2 ',    29.250,     0.000,     0.000,     0.000,1.00000,     0,    81.250,   0.00000,   1.00000,   0.00000,   0.00000,1.00000,1,  100.0,    65.000,     0.000,   1,1.0000
  2071,'1 ',   112.500,    17.001,    31.950,   -21.600,1.00000,     0,   180.000,   0.00000,   1.00000,   0.00000,   0.00000,1.00000,1,  100.0,   150.000,    45.000,   1,1.0000
  2076,'1 ',    22.500,    55.761,     6.390,    -4.320,1.04000,     0,    36.000,   0.00000,   1.00000,   0.00000,   0.00000,1.00000,1,  100.0,    30.000,     9.000,   1,1.0000
  2078,'1 ',    84.380,    14.039,    23.960,   -16.200,1.02000,     0,   135.000,   0.00000,   1.00000,   0.00000,   0.00000,1.00000,1,  100.0,   112.500,    33.750,   1,1.0000
  2081,'1 ',    98.820,     0.000,     0.000,     0.000,1.00000,     0,   274.500,   0.00000,   1.00000,   0.00000,   0.00000,1.00000,1,  100.0,   219.600,     0.000,   1,1.0000
  2083,'1 ',    20.000,    26.688,    10.180,    -2.220,1.02000,     0,    24.000,   0.00000,   0.50000,   0.00000,   0.00000,1.00000,1,  100.0,    20.000,     6.000,   1,1.0000
  2084,'1 ',     0.000,     0.000,    10.180,    -2.220,1.02000,     0,    24.000,   0.00000,   0.20000,   0.00000,   0.00000,1.00000,0,  100.0,    20.000,     6.000,   1,1.0000
  2085,'1 ',     0.000,     0.000,    20.360,    -4.440,1.02000,     0,    48.000,   0.00000,   0.39000,   0.00000,   0.00000,1.00000,0,  100.0,    40.000,    12.000,   1,1.0000
  2087,'1 ',    13.500,   -11.709,    11.709,   -11.709,1.00000,     0,    37.500,   0.00000,   1.00000,   0.00000,   0.00000,1.00000,1,  100.0,    30.000,     0.000,   1,1.0000
  2087,'2 ',   205.146,   -26.160,     0.000,     0.000,1.00000,     0,   569.850,   0.00000,   1.00000,   0.00000,   0.00000,1.00000,1,  100.0,   455.880,     0.000,   1,1.0000
  2089,'1 ',    50.700,     9.281,    14.400,    -9.730,1.00000,     0,    81.120,   0.00000,   1.00000,   0.00000,   0.00000,1.00000,1,  100.0,    67.600,    20.280,   1,1.0000
  2091,'1 ',   148.590,   -26.732,   128.881,  -128.881,1.00000,     0,   412.750,   0.00000,   1.00000,   0.00000,   0.00000,1.00000,1,  100.0,   330.200,     0.000,   1,1.0000
  2093,'1 ',    11.056,    20.430,     9.589,    -9.589,1.00000,     0,    30.708,   0.00000,   1.00000,   0.00000,   0.00000,1.00000,1,  100.0,    24.567,     0.000,   1,1.0000
  2094,'1 ',     0.000,     0.000,     2.130,    -1.440,1.00000,     0,    12.000,   0.00000,   1.00000,   0.00000,   0.00000,1.00000,0,  100.0,    10.000,     3.000,   1,1.0000
  2094,'2 ',    11.056,    -0.119,     9.589,    -9.589,1.00000,     0,    30.708,   0.00000,   1.00000,   0.00000,   0.00000,1.00000,1,  100.0,    24.567,     0.000,   1,1.0000
  2095,'1 ',     0.000,     0.000,    16.930,   -11.450,1.00000,     0,    95.400,   0.00000,   1.00000,   0.00000,   0.00000,1.00000,0,  100.0,    79.500,    23.850,   1,1.0000
  2095,'2 ',    11.056,    -0.292,     9.589,    -9.589,1.00000,     0,    30.708,   0.00000,   1.00000,   0.00000,   0.00000,1.00000,1,  100.0,    24.567,     0.000,   1,1.0000
  2099,'1 ',     7.500,    15.608,     2.130,    -1.440,1.02000,     0,    12.000,   0.00000,   1.00000,   0.00000,   0.00000,1.00000,1,  100.0,    10.000,     3.000,   1,1.0000
  2100,'1 ',   112.500,    13.447,    31.950,   -21.600,1.02000,     0,   180.000,   0.00000,   1.00000,   0.00000,   0.00000,1.00000,1,  100.0,   150.000,    45.000,   1,1.0000
  2103,'1 ',     0.000,     0.000,   136.280,   -29.720,1.00000,     0,   321.280,   0.00000,   0.11000,   0.00000,   0.00000,1.00000,0,  100.0,   267.730,    80.320,   1,1.0000
  2104,'1 ',     0.000,     0.000,   136.280,   -29.720,1.00000,     0,   321.280,   0.00000,   0.11000,   0.00000,   0.00000,1.00000,0,  100.0,   267.730,    80.320,   1,1.0000
  2105,'1 ',     0.000,     0.000,   136.280,   -29.720,1.00000,     0,   321.280,   0.00000,   0.42000,   0.00000,   0.00000,1.00000,0,  100.0,   267.730,    80.320,   1,1.0000
  2109,'1 ',    94.590,    70.602,    82.044,   -82.044,1.00000,     0,   262.750,   0.00000,   1.00000,   0.00000,   0.00000,1.00000,1,  100.0,   210.200,     0.000,   1,1.0000
  2113,'1 ',    71.451,     0.000,     0.000,     0.000,1.00000,     0,   198.478,   0.00000,   1.00000,   0.00000,   0.00000,1.00000,1,  100.0,   158.782,     0.000,   1,1.0000
  2114,'1 ',    71.451,     0.000,     0.000,     0.000,1.00000,     0,   198.478,   0.00000,   1.00000,   0.00000,   0.00000,1.00000,1,  100.0,   158.782,     0.000,   1,1.0000
  2115,'1 ',   184.720,   -20.500,    94.020,   -20.500,1.00000,     0,   221.660,   0.00000,   0.34000,   0.00000,   0.00000,1.00000,1,  100.0,   184.720,    55.410,   1,1.0000
  2115,'2 ',    71.451,    -5.930,     0.000,     0.000,1.00000,     0,   198.478,   0.00000,   1.00000,   0.00000,   0.00000,1.00000,1,  100.0,   158.782,     0.000,   1,1.0000
  2116,'1 ',   184.720,   -44.577,    94.020,   -20.500,1.00000,     0,   221.660,   0.00000,   0.13000,   0.00000,   0.00000,1.00000,1,  100.0,   184.720,    55.410,   1,1.0000
...